
##########################################################################
#               Crystallographic Information Format file
#               Produced by PyCifRW module
#
#  This is a CIF file.  CIF has been adopted by the International
#  Union of Crystallography as the standard for data archiving and
#  transmission.
#
#  For information on this file format, follow the CIF links at
#  http://www.iucr.org
##########################################################################

data_0

loop_
  _atom_site_label
  _atom_site_fract_x
  _atom_site_fract_y
  _atom_site_fract_z
  _atom_site_type_symbol
         Ba1       0.8965924582118168  0.8965924581978235  0.7499999999968082  Ba       
         Ba2       0.10340754179751976           0.10340754179284    0.25000000000275957          Ba       
         C1        0.23395238080264336           0.4753604312934071  0.6074320663586895 C        
         C2        0.47536043129806416           0.2339523807979867  0.892567933635359  C        
         C3        0.7660476191973566  0.524639568706593   0.39256793364131043           C        
         C4        0.5246395687019131  0.7660476192020365  0.10743206635317039           C        
         S1        0.3386310702634352  0.7397413705299642  0.6773210859161757  S        
         S2        0.7397413705252843  0.3386310702681149  0.8226789140783051  S        
         S3        0.6613689297272285  0.2602586294793724  0.32267891408425636           S        
         S4        0.26025862947471556           0.6613689297318851  0.17732108592169485          S        
         N1        0.15520998661097707           0.2820163252279592  0.5578264874671652 N        
         N2        0.2820163252326391  0.15520998660629753           0.9421735125383539 N        
         N3        0.8447900133890457  0.7179836747720179  0.44217351254430515           N        
         N4        0.717983674767384   0.8447900133936794  0.05782648747311654           N
_cell_angle_alpha                       91.69894776135195
_cell_angle_beta                        88.30105223864805
_cell_angle_gamma                       114.8541200717058
_cell_length_a                          6.3587627540404945
_cell_length_b                          6.3587627540404945
_cell_length_c                          8.717299758281083
loop_
  _symmetry_equiv_pos_as_xyz
         'x, y, z' 
_symmetry_int_tables_number             1
_symmetry_space_group_name_H-M          'P 1'