data_DUMMY
_cell_length_a 4.0
_cell_length_b 4.0
_cell_length_c 4.0
_cell_angle_alpha 90.0
_cell_angle_beta  90.0
_cell_angle_gamma 90.0
_space_group_name_H-M_alt 'P m -3 m'
loop_
_atom_site_label
_atom_site_type_symbol
_atom_site_occupancy
_atom_site_fract_x
_atom_site_fract_y
_atom_site_fract_z
_atom_site_adp_type
_atom_site_U_iso_or_equiv
Fe1 D   1.0   0.0 0.0 0.0   Uiso 0.019(2)
Fe2 D   1.0   0.5 0.5 0.5   Uiso 0.019(2)
C1  C    1.0   0.0 0.5 0.5   Uiso 0.0177
