
##########################################################################
#               Crystallographic Information Format file
#               Produced by PyCifRW module
#
#  This is a CIF file.  CIF has been adopted by the International
#  Union of Crystallography as the standard for data archiving and
#  transmission.
#
#  For information on this file format, follow the CIF links at
#  http://www.iucr.org
##########################################################################

data_0

loop_
  _atom_site_label
  _atom_site_fract_x
  _atom_site_fract_y
  _atom_site_fract_z
  _atom_site_type_symbol
         Mg1       0.3230150293403171  0.17698497065439878           0.0       Mg       
         Mg2       0.8230150293456011  0.3230150293403171  0.0       Mg        
         Mg3       0.6769849706491146  0.8230150293456011  0.0       Mg        
         Mg4       0.17698497065439878           0.6769849706491146  0.0       Mg       
         Zn1       0.4999999999947159  0.4999999999947159  0.0       Zn        
         Zn2       0.0       0.0       0.0       Zn        
         B1        0.8727086545805982  0.6272913454141176  0.0       B         
         B2        0.3727086545858823  0.8727086545805982  0.0       B         
         B3        0.12729134541940176           0.3727086545858823  0.0       B        
         B4        0.6272913454141176  0.12729134541940176           0.0       B        
         Ir1       0.4299565041525537  0.7160135910847766  0.4999999999999829  Ir       
         Ir2       0.9299565041472696  0.7839864089099285  0.4999999999999829  Ir       
         Ir3       0.28398640891521276           0.4299565041525537  0.4999999999999829 Ir       
         Ir4       0.7839864089099285  0.07004349584215788           0.4999999999999829 Ir       
         Ir5       0.5700434958474356  0.28398640891521276           0.4999999999999829 Ir       
         Ir6       0.07004349584215788           0.21601359107949256           0.4999999999999829 Ir       
         Ir7       0.7160135910847766  0.5700434958474356  0.4999999999999829  Ir       
         Ir8       0.21601359107949256           0.9299565041472696  0.4999999999999829 Ir       
         Ir9       0.4999999999947159  0.0       0.4999999999999829  Ir        
         Ir10      0.0       0.4999999999947159  0.4999999999999829  Ir 
_cell_angle_alpha                       90.0
_cell_angle_beta                        90.0
_cell_angle_gamma                       90.0
_cell_length_a                          9.4623270052342
_cell_length_b                          9.4623270052342
_cell_length_c                          2.9327245575729
loop_
  _symmetry_equiv_pos_as_xyz
         'x, y, z' 
_symmetry_int_tables_number             1
_symmetry_space_group_name_H-M          'P 1'